Circuit: * C:\Users\LEGION\Documents\College\Elektronika Daya\UAS\Control\Draft2.asc

Direct Newton iteration failed to find .op point.  (Use ".option noopiter" to skip.)
Starting Gmin stepping
Gmin = 10
Gmin = 1.07374
Gmin = 0.115292
Gmin = 0.0123794
Gmin = 0.00132923
Gmin = 0.000142725
Gmin = 1.5325e-005
Gmin = 1.6455e-006
Gmin = 1.76685e-007
Gmin = 1.89714e-008
Gmin = 2.03704e-009
Gmin = 2.18725e-010
Gmin = 2.34854e-011
Gmin = 2.52173e-012
Gmin = 2.70769e-013
Gmin = 0
Gmin stepping succeeded in finding the operating point.


Date: Wed Mar 19 22:20:07 2025
Total elapsed time: 0.171 seconds.

tnom = 27
temp = 27
method = modified trap
totiter = 2801
traniter = 2082
tranpoints = 1042
accept = 1042
rejected = 0
matrix size = 142
fillins = 193
solver = Normal
Thread vector: 6.4/4.4[2] 2.4/1.8[2] 1.8/1.4[2] 0.3/0.7[1]  2592/500
Matrix Compiler1: 15.48 KB object code size  3.3/1.0/[0.9]
Matrix Compiler2: 14.66 KB object code size  1.0/1.4/[0.8]

